6
FORCE:  7.976629  ...  ENERGY:  -4.44252497
 H   14.1257790000000   13.9218768000000   15.2897571000000 
 H   14.1229359000000   15.2914332000000   13.9194306000000 
 H   14.1231792000000   15.7929123000000   15.7912677000000 
 C   14.5316142000000   15.0026931000000   14.9999883000000 
 C   16.9226625000000   14.9921505000000   14.9984331000000 
 N   16.1729367000000   14.9970582000000   15.0020463000000 
6
FORCE:  126.474931  ...  ENERGY:  -6.08828352
 H   14.1041493000000   13.8531726000000   15.3093183000000 
 H   14.0996877000000   15.3128325000000   13.8481068000000 
 H   14.0971899000000   15.8447472000000   15.8412366000000 
 C   14.4844758000000   15.0064701000000   14.9998854000000 
 C   17.0635398000000   14.9917467000000   14.9922057000000 
 N   16.1546484000000   15.0010464000000   15.0055860000000 
6
FORCE:  54.300400  ...  ENERGY:  -26.56505761
 H   14.0862726000000   13.8181788000000   15.3182895000000 
 H   14.0774565000000   15.3191349000000   13.8155097000000 
 H   14.0771688000000   15.8722440000000   15.8676681000000 
 C   14.4082596000000   15.0049392000000   14.9996940000000 
 C   17.2306839000000   14.9883279000000   14.9859852000000 
 N   16.1226210000000   15.0061695000000   15.0141063000000 
6
FORCE:  9.033052  ...  ENERGY:  -33.33524656
 H   14.0890488000000   13.8305535000000   15.3125577000000 
 H   14.0823945000000   15.3151542000000   13.8284223000000 
 H   14.0803527000000   15.8607099000000   15.8587053000000 
 C   14.4145917000000   15.0042819000000   14.9999673000000 
 C   17.2340043000000   14.9846010000000   14.9778507000000 
 N   16.1011446000000   15.0092016000000   15.0203940000000 
6
FORCE:  10.160363  ...  ENERGY:  -33.78995103
 H   14.0939520000000   13.8507873000000   15.3048987000000 
 H   14.0895546000000   15.3092160000000   13.8490749000000 
 H   14.0856318000000   15.8435442000000   15.8439552000000 
 C   14.4243921000000   15.0037029000000   15.0005835000000 
 C   17.2534614000000   14.9807235000000   14.9694852000000 
 N   16.0537176000000   15.0123684000000   15.0266259000000 
6
FORCE:  2.932014  ...  ENERGY:  -34.34373458
 H   14.1008889000000   13.8778935000000   15.2951400000000 
 H   14.0995485000000   15.3018744000000   13.8763518000000 
 H   14.0927223000000   15.8207991000000   15.8240124000000 
 C   14.4406038000000   15.0034212000000   15.0015804000000 
 C   17.2655673000000   14.9759202000000   14.9584584000000 
 N   16.0008519000000   15.0162960000000   15.0342816000000 
6
FORCE:  6.636125  ...  ENERGY:  -34.52671793
 H   14.1011166000000   13.8784062000000   15.2948112000000 
 H   14.1001161000000   15.3018780000000   13.8767982000000 
 H   14.0928627000000   15.8201292000000   15.8235834000000 
 C   14.4421998000000   15.0035202000000   15.0016269000000 
 C   17.2616373000000   14.9754750000000   14.9572098000000 
 N   16.0023480000000   15.0166755000000   15.0350652000000 
6
FORCE:  6.418160  ...  ENERGY:  -34.56296233
 H   14.1016068000000   13.8795633000000   15.2941353000000 
 H   14.1012624000000   15.3018396000000   13.8778275000000 
 H   14.0931756000000   15.8187222000000   15.8226363000000 
 C   14.4452547000000   15.0037104000000   15.0017313000000 
 C   17.2538655000000   14.9746497000000   14.9548767000000 
 N   16.0053024000000   15.0173667000000   15.0364863000000 
6
FORCE:  5.867726  ...  ENERGY:  -34.63073321
 H   14.1024153000000   13.8815580000000   15.2930856000000 
 H   14.1030090000000   15.3016929000000   13.8796416000000 
 H   14.0937129000000   15.8164800000000   15.8210409000000 
 C   14.4495699000000   15.0039798000000   15.0019098000000 
 C   17.2425507000000   14.9735346000000   14.9516889000000 
 N   16.0094727000000   15.0182736000000   15.0383391000000 
6
FORCE:  4.934276  ...  ENERGY:  -34.71919167
 H   14.1036204000000   13.8846483000000   15.2916237000000 
 H   14.1053919000000   15.3013506000000   13.8825096000000 
 H   14.0945469000000   15.8132694000000   15.8186250000000 
 C   14.4549213000000   15.0043122000000   15.0021795000000 
 C   17.2282710000000   14.9722332000000   14.9479164000000 
 N   16.0143015000000   15.0192855000000   15.0403815000000 
6
FORCE:  3.592457  ...  ENERGY:  -34.81234494
 H   14.1053220000000   13.8891399000000   15.2897022000000 
 H   14.1084675000000   15.3007128000000   13.8867510000000 
 H   14.0957685000000   15.8089296000000   15.8151870000000 
 C   14.4610995000000   15.0046875000000   15.0025578000000 
 C   17.2120167000000   14.9708361000000   14.9438070000000 
 N   16.0187436000000   15.0202995000000   15.0423861000000 
6
FORCE:  2.146413  ...  ENERGY:  -34.89412728
 H   14.1075930000000   13.8950496000000   15.2872839000000 
 H   14.1123531000000   15.2997927000000   13.8923754000000 
 H   14.0974125000000   15.8034309000000   15.8107290000000 
 C   14.4680421000000   15.0051084000000   15.0030648000000 
 C   17.1952437000000   14.9692830000000   14.9392143000000 
 N   16.0211886000000   15.0213462000000   15.0443940000000 
6
FORCE:  2.886822  ...  ENERGY:  -34.95745339
 H   14.1107652000000   13.9027782000000   15.2840292000000 
 H   14.1177366000000   15.2986206000000   13.8997197000000 
 H   14.0996448000000   15.7962240000000   15.8049561000000 
 C   14.4764022000000   15.0056463000000   15.0038001000000 
 C   17.1779334000000   14.9672142000000   14.9331069000000 
 N   16.0199001000000   15.0226593000000   15.0468201000000 
6
FORCE:  4.291449  ...  ENERGY:  -35.01841701
 H   14.1147861000000   13.9115331000000   15.2799855000000 
 H   14.1247668000000   15.2974839000000   13.9079559000000 
 H   14.1023145000000   15.7877343000000   15.7984623000000 
 C   14.4860868000000   15.0063291000000   15.0047634000000 
 C   17.1626481000000   14.9643093000000   14.9246499000000 
 N   16.0125150000000   15.0244974000000   15.0501603000000 
6
FORCE:  4.645473  ...  ENERGY:  -35.10332408
 H   14.1195573000000   13.9207434000000   15.2752902000000 
 H   14.1333432000000   15.2965359000000   13.9165338000000 
 H   14.1052809000000   15.7784178000000   15.7917147000000 
 C   14.4965865000000   15.0071124000000   15.0058893000000 
 C   17.1516342000000   14.9604894000000   14.9136582000000 
 N   15.9976359000000   15.0269256000000   15.0545598000000 
6
FORCE:  3.272462  ...  ENERGY:  -35.22971291
 H   14.1250545000000   13.9302027000000   15.2700504000000 
 H   14.1433623000000   15.2958069000000   13.9253100000000 
 H   14.1084459000000   15.7685925000000   15.7849704000000 
 C   14.5069575000000   15.0078990000000   15.0070629000000 
 C   17.1454383000000   14.9558655000000   14.9004135000000 
 N   15.9758640000000   15.0298014000000   15.0597528000000 
6
FORCE:  0.629885  ...  ENERGY:  -35.35560788
 H   14.1318516000000   13.9408881000000   15.2640039000000 
 H   14.1554841000000   15.2951022000000   13.9354635000000 
 H   14.1118572000000   15.7579638000000   15.7779375000000 
 C   14.5142175000000   15.0083814000000   15.0079680000000 
 C   17.1411255000000   14.9508405000000   14.8856733000000 
 N   15.9518460000000   15.0324300000000   15.0643221000000 
6
FORCE:  2.339136  ...  ENERGY:  -35.41968701
 H   14.1319524000000   13.9411338000000   15.2639418000000 
 H   14.1555975000000   15.2950473000000   13.9357410000000 
 H   14.1118776000000   15.7578468000000   15.7778166000000 
 C   14.5138113000000   15.0083409000000   15.0079254000000 
 C   17.1403953000000   14.9509182000000   14.8858305000000 
 N   15.9527499000000   15.0323055000000   15.0640653000000 
6
FORCE:  2.132822  ...  ENERGY:  -35.42455235
 H   14.1321438000000   13.9415889000000   15.2638233000000 
 H   14.1558150000000   15.2949471000000   13.9362603000000 
 H   14.1119100000000   15.7576347000000   15.7776006000000 
 C   14.5129986000000   15.0082608000000   15.0078393000000 
 C   17.1390444000000   14.9510679000000   14.8861323000000 
 N   15.9544761000000   15.0320625000000   15.0635640000000 
6
FORCE:  1.733041  ...  ENERGY:  -35.43246392
 H   14.1324147000000   13.9422159000000   15.2636529000000 
 H   14.1561264000000   15.2948115000000   13.9369824000000 
 H   14.1119460000000   15.7573500000000   15.7773156000000 
 C   14.5117842000000   15.0081402000000   15.0077076000000 
 C   17.1372627000000   14.9512830000000   14.8865598000000 
 N   15.9568596000000   15.0317085000000   15.0628341000000 
6
FORCE:  1.153877  ...  ENERGY:  -35.44142145
 H   14.1327630000000   13.9430034000000   15.2634240000000 
 H   14.1565308000000   15.2946444000000   13.9378983000000 
 H   14.1119826000000   15.7569951000000   15.7769724000000 
 C   14.5101678000000   15.0079755000000   15.0075255000000 
 C   17.1353235000000   14.9515584000000   14.8870965000000 
 N   15.9596304000000   15.0312468000000   15.0618813000000 
6
FORCE:  0.726999  ...  ENERGY:  -35.44949049
 H   14.1332028000000   13.9440030000000   15.2631093000000 
 H   14.1570429000000   15.2944329000000   13.9390629000000 
 H   14.1120336000000   15.7565256000000   15.7765359000000 
 C   14.5081695000000   15.0077589000000   15.0072876000000 
 C   17.1336147000000   14.9518944000000   14.8877346000000 
 N   15.9623337000000   15.0306735000000   15.0606960000000 
6
FORCE:  0.657374  ...  ENERGY:  -35.45594298
 H   14.1337335000000   13.9452615000000   15.2626911000000 
 H   14.1576546000000   15.2941602000000   13.9405131000000 
 H   14.1121287000000   15.7558818000000   15.7759506000000 
 C   14.5059837000000   15.0075003000000   15.0070095000000 
 C   17.1324717000000   14.9522781000000   14.8884456000000 
 N   15.9644151000000   15.0300174000000   15.0593355000000 
6
FORCE:  1.170158  ...  ENERGY:  -35.46168380
 H   14.1344193000000   13.9469964000000   15.2620998000000 
 H   14.1584301000000   15.2937711000000   13.9424796000000 
 H   14.1123144000000   15.7549122000000   15.7750716000000 
 C   14.5035738000000   15.0071823000000   15.0066789000000 
 C   17.1319443000000   14.9527467000000   14.8893012000000 
 N   15.9656793000000   15.0292257000000   15.0576894000000 
6
FORCE:  1.530075  ...  ENERGY:  -35.46925778
 H   14.1353043000000   13.9494021000000   15.2612763000000 
 H   14.1594063000000   15.2932125000000   13.9451592000000 
 H   14.1126447000000   15.7534629000000   15.7737474000000 
 C   14.5010823000000   15.0068043000000   15.0063021000000 
 C   17.1321195000000   14.9533233000000   14.8903476000000 
 N   15.9657561000000   15.0282759000000   15.0557088000000 
6
FORCE:  1.625508  ...  ENERGY:  -35.48089627
 H   14.1364527000000   13.9527525000000   15.2601438000000 
 H   14.1606393000000   15.2924112000000   13.9488357000000 
 H   14.1131850000000   15.7513290000000   15.7717719000000 
 C   14.4986820000000   15.0063669000000   15.0058851000000 
 C   17.1329160000000   14.9540466000000   14.8916661000000 
 N   15.9643617000000   15.0271206000000   15.0532974000000 
6
FORCE:  1.437054  ...  ENERGY:  -35.49801992
 H   14.1379953000000   13.9574622000000   15.2586705000000 
 H   14.1622542000000   15.2912616000000   13.9539651000000 
 H   14.1139944000000   15.7482978000000   15.7688652000000 
 C   14.4966903000000   15.0059016000000   15.0054723000000 
 C   17.1338238000000   14.9548950000000   14.8932369000000 
 N   15.9613899000000   15.0257169000000   15.0503943000000 
6
FORCE:  1.349957  ...  ENERGY:  -35.52055575
 H   14.1401685000000   13.9637721000000   15.2572392000000 
 H   14.1645117000000   15.2897328000000   13.9609281000000 
 H   14.1149289000000   15.7446933000000   15.7650030000000 
 C   14.4957435000000   15.0056019000000   15.0053100000000 
 C   17.1340857000000   14.9554158000000   14.8942374000000 
 N   15.9567459000000   15.0242193000000   15.0474663000000 
6
FORCE:  0.906583  ...  ENERGY:  -35.54581059
 H   14.1431889000000   13.9713540000000   15.2565672000000 
 H   14.1673989000000   15.2878716000000   13.9694916000000 
 H   14.1160764000000   15.7413144000000   15.7604841000000 
 C   14.4963081000000   15.0056781000000   15.0056661000000 
 C   17.1330120000000   14.9554557000000   14.8947516000000 
 N   15.9504531000000   15.0225924000000   15.0445848000000 
6
FORCE:  1.036636  ...  ENERGY:  -35.56929981
 H   14.1468384000000   13.9794606000000   15.2570850000000 
 H   14.1706869000000   15.2859030000000   13.9788897000000 
 H   14.1171477000000   15.7388433000000   15.7558299000000 
 C   14.4985374000000   15.0063306000000   15.0068517000000 
 C   17.1294318000000   14.9548287000000   14.8944936000000 
 N   15.9443406000000   15.0208950000000   15.0418932000000 
6
FORCE:  1.299097  ...  ENERGY:  -35.58903951
 H   14.1508455000000   13.9880904000000   15.2584722000000 
 H   14.1743592000000   15.2839350000000   13.9890714000000 
 H   14.1177660000000   15.7369725000000   15.7510158000000 
 C   14.5024878000000   15.0075948000000   15.0089763000000 
 C   17.1224538000000   14.9534295000000   14.8929174000000 
 N   15.9399267000000   15.0191535000000   15.0393735000000 
6
FORCE:  1.148225  ...  ENERGY:  -35.60813118
 H   14.1551112000000   13.9972542000000   15.2607648000000 
 H   14.1782610000000   15.2820006000000   13.9999710000000 
 H   14.1179475000000   15.7356309000000   15.7459728000000 
 C   14.5083867000000   15.0095205000000   15.0122112000000 
 C   17.1116775000000   14.9513697000000   14.8902981000000 
 N   15.9376197000000   15.0172404000000   15.0367116000000 
6
FORCE:  0.551289  ...  ENERGY:  -35.62366874
 H   14.1593553000000   14.0068656000000   15.2640540000000 
 H   14.1819951000000   15.2802132000000   14.0113011000000 
 H   14.1177402000000   15.7347213000000   15.7406562000000 
 C   14.5168986000000   15.0121809000000   15.0169059000000 
 C   17.0986776000000   14.9487468000000   14.8869057000000 
 N   15.9358029000000   15.0150447000000   15.0335355000000 
6
FORCE:  0.732620  ...  ENERGY:  -35.62450705
 H   14.1593247000000   14.0068311000000   15.2642025000000 
 H   14.1819315000000   15.2802516000000   14.0112474000000 
 H   14.1177123000000   15.7348410000000   15.7407027000000 
 C   14.5170939000000   15.0122388000000   15.0170460000000 
 C   17.0991360000000   14.9486616000000   14.8867845000000 
 N   15.9353040000000   15.0150561000000   15.0335499000000 
6
FORCE:  0.672413  ...  ENERGY:  -35.62526567
 H   14.1592092000000   14.0067339000000   15.2644032000000 
 H   14.1817284000000   15.2803173000000   14.0110851000000 
 H   14.1177165000000   15.7349802000000   15.7407708000000 
 C   14.5174170000000   15.0123009000000   15.0172386000000 
 C   17.1000420000000   14.9486244000000   14.8868043000000 
 N   15.9344154000000   15.0150402000000   15.0334653000000 
6
FORCE:  0.507272  ...  ENERGY:  -35.62635604
 H   14.1590019000000   14.0065770000000   15.2646483000000 
 H   14.1813801000000   15.2804097000000   14.0108181000000 
 H   14.1177534000000   15.7351290000000   15.7408593000000 
 C   14.5178355000000   15.0123621000000   15.0174723000000 
 C   17.1012636000000   14.9486490000000   14.8869918000000 
 N   15.9333117000000   15.0149871000000   15.0332568000000 
6
FORCE:  0.326483  ...  ENERGY:  -35.62724792
 H   14.1586938000000   14.0063625000000   15.2649444000000 
 H   14.1808707000000   15.2805273000000   14.0104515000000 
 H   14.1178281000000   15.7352898000000   15.7409712000000 
 C   14.5183071000000   15.0124176000000   15.0177357000000 
 C   17.1026025000000   14.9487561000000   14.8873980000000 
 N   15.9322548000000   15.0148794000000   15.0328803000000 
6
FORCE:  0.302812  ...  ENERGY:  -35.62764022
 H   14.1582897000000   14.0061114000000   15.2652744000000 
 H   14.1802194000000   15.2806647000000   14.0100198000000 
 H   14.1179316000000   15.7354488000000   15.7411029000000 
 C   14.5187673000000   15.0124611000000   15.0180003000000 
 C   17.1037968000000   14.9489505000000   14.8880190000000 
 N   15.9315552000000   15.0147099000000   15.0323223000000 
6
FORCE:  0.483792  ...  ENERGY:  -35.62771076
 H   14.1582717000000   14.0061054000000   15.2652828000000 
 H   14.1801924000000   15.2806683000000   14.0100096000000 
 H   14.1179367000000   15.7354500000000   15.7411074000000 
 C   14.5187640000000   15.0124593000000   15.0180000000000 
 C   17.1037653000000   14.9489658000000   14.8880580000000 
 N   15.9316290000000   15.0146979000000   15.0322875000000 
6
FORCE:  0.468280  ...  ENERGY:  -35.62777364
 H   14.1582357000000   14.0060940000000   15.2652990000000 
 H   14.1801387000000   15.2806755000000   14.0099895000000 
 H   14.1179472000000   15.7354524000000   15.7411161000000 
 C   14.5187583000000   15.0124551000000   15.0179994000000 
 C   17.1037041000000   14.9489964000000   14.8881360000000 
 N   15.9317736000000   15.0146742000000   15.0322179000000 
6
FORCE:  0.440315  ...  ENERGY:  -35.62788596
 H   14.1581823000000   14.0060766000000   15.2653233000000 
 H   14.1800583000000   15.2806863000000   14.0099595000000 
 H   14.1179628000000   15.7354551000000   15.7411290000000 
 C   14.5187502000000   15.0124488000000   15.0179979000000 
 C   17.1036174000000   14.9490420000000   14.8882524000000 
 N   15.9319839000000   15.0146391000000   15.0321141000000 
6
FORCE:  0.400731  ...  ENERGY:  -35.62803745
 H   14.1581121000000   14.0060541000000   15.2653551000000 
 H   14.1799512000000   15.2807001000000   14.0099202000000 
 H   14.1179838000000   15.7354575000000   15.7411464000000 
 C   14.5187409000000   15.0124401000000   15.0179958000000 
 C   17.1035121000000   14.9491026000000   14.8884060000000 
 N   15.9322518000000   15.0145932000000   15.0319761000000 
6
FORCE:  0.351306  ...  ENERGY:  -35.62821380
 H   14.1580251000000   14.0060259000000   15.2653950000000 
 H   14.1798168000000   15.2807169000000   14.0098722000000 
 H   14.1180108000000   15.7354593000000   15.7411680000000 
 C   14.5187322000000   15.0124287000000   15.0179928000000 
 C   17.1033963000000   14.9491776000000   14.8885962000000 
 N   15.9325671000000   15.0145371000000   15.0318045000000 
