22
Lattice="30.0 0.0 0.0 0.0 30.0 0.0 0.0 0.0 30.0" Properties=species:S:1:pos:R:3 pbc="T T T"
H      11.49183000      16.51848000      15.75201000 
H      11.53893000      14.94648000      14.89581000 
H      11.57613000      14.99118000      16.67301000 
H      13.56663000      13.57758000      15.43071000 
H      15.86613000      15.07428000      16.43181000 
H      17.04483000      12.86658000      16.25181000 
H      15.66393000      12.17478000      15.39711000 
H      15.49083000      12.68868000      17.11251000 
H      15.74673000      16.62258000      14.72121000 
H      17.82273000      16.06008000      12.67401000 
H      16.20333000      16.32948000      11.99601000 
H      16.98843000      17.61738000      12.96351000 
C      11.91633000      15.50928000      15.76311000 
C      13.42893000      15.60918000      15.74871000 
C      15.55293000      14.32098000      15.69021000 
C      15.95403000      12.92718000      16.14471000 
C      16.22193000      14.68008000      14.33721000 
C      16.84953000      16.53348000      12.86541000 
N      14.09493000      14.42988000      15.59931000 
N      16.28673000      16.01388000      14.09811000 
O      14.02983000      16.68888000      15.88791000 
O      16.66413000      13.81968000      13.56561000 
22
Lattice="30.0 0.0 0.0 0.0 30.0 0.0 0.0 0.0 30.0" Properties=species:S:1:pos:R:3 pbc="T T T"
H      11.45291410      16.43378961      15.57264630 
H      11.56942420      14.89611540      14.66050428 
H      11.46975650      14.87287417      16.43565741 
H      13.56272983      13.54461313      15.14418937 
H      15.76269112      14.89860404      16.50344432 
H      16.95765558      12.71692026      16.16270941 
H      15.65356917      12.14097337      15.12261365 
H      15.33661791      12.45512647      16.86505104 
H      15.69075418      16.62951747      14.93747097 
H      17.96252515      16.35196248      13.04378248 
H      16.40056230      16.64593824      12.25012141 
H      17.04445408      17.84402556      13.41558733 
C      11.87801554      15.42462059      15.57476655 
C      13.38594625      15.52304631      15.68876193 
C      15.51667564      14.24078210      15.65342549 
C      15.87972728      12.79987904      15.97345285 
C      16.30102388      14.75649115      14.41699487 
C      16.95858907      16.77334372      13.19261365 
N      14.07111723      14.37007360      15.45116043 
N      16.30917131      16.10819317      14.30627916 
O      13.96543413      16.57788017      16.00371213 
O      16.87064555      13.99526030      13.62498655 
22
Lattice="30.0 0.0 0.0 0.0 30.0 0.0 0.0 0.0 30.0" Properties=species:S:1:pos:R:3 pbc="T T T"
H      11.38806523      16.33973878      15.49431123 
H      11.56164026      14.88728803      14.45892321 
H      11.38885793      14.71077741      16.21998832 
H      13.55518438      13.52641809      14.89201758 
H      15.64971404      14.73294594      16.51611461 
H      16.88565835      12.60537478      16.00393813 
H      15.65388303      12.15173858      14.82494449 
H      15.22541822      12.26577733      16.56814185 
H      15.67618584      16.63601641      15.15304239 
H      18.12717415      16.59544597      13.48925860 
H      16.65725376      16.91878163      12.54646351 
H      17.11496759      18.01866325      13.88452726 
C      11.82531369      15.33798741      15.42714461 
C      13.32518358      15.43946496      15.61797154 
C      15.46854472      14.17768293      15.58067860 
C      15.82125064      12.70952022      15.75770655 
C      16.33976330      14.83274982      14.47444283 
C      17.09661236      16.97230126      13.55605684 
N      14.03843914      14.32463401      15.29619892 
N      16.34722260      16.18787141      14.51949597 
O      13.87308619      16.46156687      16.06766067 
O      16.98058038      14.16727673      13.65102450 
22
Lattice="30.0 0.0 0.0 0.0 30.0 0.0 0.0 0.0 30.0" Properties=species:S:1:pos:R:3 pbc="T T T"
H      11.36185538      16.28328622      15.40863153 
H      11.57996335      14.89400110      14.29668998 
H      11.32414824      14.61570753      16.03464222 
H      13.56343921      13.55709849      14.62635817 
H      15.56490376      14.53949003      16.49712750 
H      16.83403006      12.49260982      15.77939162 
H      15.66726846      12.19805525      14.48938905 
H      15.14762586      12.08894333      16.20764717 
H      15.65011331      16.60802685      15.38176130 
H      18.22364238      16.79067257      13.94705156 
H      16.84819334      17.16910349      12.89012131 
H      17.12733491      18.14160831      14.36886802 
C      11.79977975      15.28519428      15.30097419 
C      13.28798198      15.36253591      15.57566820 
C      15.43585190      14.11113546      15.48914164 
C      15.78370618      12.63123021      15.49343277 
C      16.36677089      14.90029703      14.52839934 
C      17.17859135      17.13306717      13.94083615 
N      14.02263750      14.29760225      15.15057129 
N      16.35928338      16.23969071      14.73865717 
O      13.80649242      16.31781949      16.18080880 
O      17.06639550      14.34291641      13.67373489 
22
Lattice="30.0 0.0 0.0 0.0 30.0 0.0 0.0 0.0 30.0" Properties=species:S:1:pos:R:3 pbc="T T T"
H      11.33754318      16.23319457      15.35053565 
H      11.57327924      14.89063045      14.18449813 
H      11.28259947      14.54288557      15.90481084 
H      13.57198832      13.61136185      14.38210808 
H      15.48869652      14.35254805      16.43278738 
H      16.79836320      12.41495340      15.50723336 
H      15.68633471      12.29255163      14.14371219 
H      15.09707520      11.96255319      15.81069518 
H      15.61758136      16.55029439      15.59603832 
H      18.29187669      16.92349658      14.43746516 
H      17.03339127      17.37647896      13.27026768 
H      17.11557052      18.20561781      14.85685032 
C      11.77508110      15.23915523      15.20780622 
C      13.25584295      15.29507511      15.52271926 
C      15.40880085      14.06048251      15.37211044 
C      15.76002709      12.59147771      15.19937639 
C      16.39000388      14.96356132      14.57507152 
C      17.24378531      17.24498614      14.34351327 
N      14.01199084      14.29282874      14.99520327 
N      16.36337835      16.26494924      14.95171610 
O      13.74900308      16.17564664      16.25008618 
O      17.14772253      14.51518544      13.70530507 
22
Lattice="30.0 0.0 0.0 0.0 30.0 0.0 0.0 0.0 30.0" Properties=species:S:1:pos:R:3 pbc="T T T"
H      11.31942008      16.19328759      15.23702540 
H      11.54675760      14.81602311      14.10873400 
H      11.23568191      14.52335689      15.83802562 
H      13.57382353      13.66040010      14.18375437 
H      15.43284984      14.18586773      16.33344461 
H      16.81245828      12.41430588      15.15245169 
H      15.66731780      12.42166813      13.81232205 
H      15.12839048      11.89040447      15.44297662 
H      15.57935556      16.47712763      15.79460167 
H      18.32993750      16.97834477      14.96834927 
H      17.23288655      17.52465377      13.68413278 
H      17.08947425      18.21499419      15.33247625 
C      11.74519066      15.18962744      15.12377411 
C      13.22032846      15.23078004      15.46466417 
C      15.38867338      14.03308899      15.24145399 
C      15.76281512      12.60065100      14.89341197 
C      16.39657532      15.03393609      14.60849662 
C      17.29834977      17.30298415      14.76043710 
N      14.00072985      14.29807799      14.85117974 
N      16.35590895      16.27264977      15.15546023 
O      13.68651350      16.03915910      16.28727901 
O      17.19670895      14.69879803      13.72559370 
22
Lattice="30.0 0.0 0.0 0.0 30.0 0.0 0.0 0.0 30.0" Properties=species:S:1:pos:R:3 pbc="T T T"
H      11.25571257      16.11490817      14.99585884 
H      11.50844977      14.50255397      14.25284176 
H      11.29683909      14.66030549      16.01432606 
H      13.49621543      13.49941828      14.54560011 
H      15.52489985      13.96106023      16.33367109 
H      16.76843392      12.36362309      14.82542858 
H      15.60048020      12.67171505      13.53895264 
H      15.06556942      11.86466777      15.05178608 
H      15.42159941      16.53360257      15.65109172 
H      18.30495120      16.99948144      15.31858888 
H      17.42666330      17.51822495      13.86652500 
H      17.02366906      18.24136010      15.45594656 
C      11.73280394      15.13656652      15.12219105 
C      13.21909694      15.32573043      15.35664301 
C      15.41325951      14.00258180      15.23380612 
C      15.72631236      12.63804453      14.63128365 
C      16.47303116      15.04020337      14.74110561 
C      17.32015240      17.31772776      14.94368987 
N      14.00009598      14.29558439      14.92830577 
N      16.32290543      16.29783025      15.20657569 
O      13.65778799      16.34077270      15.92568279 
O      17.44110190      14.67408292      14.05998931 
22
Lattice="30.0 0.0 0.0 0.0 30.0 0.0 0.0 0.0 30.0" Properties=species:S:1:pos:R:3 pbc="T T T"
H      11.20247490      16.04720800      14.95502507 
H      11.49017942      14.37956520      14.36707071 
H      11.36911767      14.70498222      16.11415730 
H      13.45584214      13.42867579      15.04514814 
H      15.63260865      13.73459854      16.34266035 
H      16.71974881      12.38331578      14.54135212 
H      15.45986706      12.88897735      13.39402084 
H      15.02372127      11.88158083      14.80678430 
H      15.31213938      16.59723497      15.32811821 
H      18.22296890      17.05178523      15.55359752 
H      17.64094682      17.39370356      13.91176605 
H      16.94383645      18.28142712      15.30193976 
C      11.72943570      15.10834370      15.15521023 
C      13.21842271      15.39425255      15.25070350 
C      15.44263493      13.96747716      15.27653111 
C      15.67486951      12.69773785      14.45576605 
C      16.54902312      15.01129688      14.93343575 
C      17.33066084      17.31159985      14.96530735 
N      13.99904824      14.28443713      15.13722849 
N      16.29274558      16.31378130      15.14247774 
O      13.62503313      16.55807202      15.42355010 
O      17.66470789      14.57987829      14.59814231 
22
Lattice="30.0 0.0 0.0 0.0 30.0 0.0 0.0 0.0 30.0" Properties=species:S:1:pos:R:3 pbc="T T T"
H      11.20520473      16.01879122      14.97720679 
H      11.44948577      14.34483516      14.40494137 
H      11.44283352      14.69114948      16.15160858 
H      13.46202949      13.46103684      15.64063803 
H      15.69977198      13.51136485      16.32101882 
H      16.66168519      12.47215620      14.30271865 
H      15.37671636      13.18211924      13.28447684 
H      14.96232826      11.96892224      14.52831054 
H      15.29178742      16.57564672      15.09113836 
H      18.12685801      17.17370150      15.75049161 
H      17.79929321      17.19954682      14.00512064 
H      16.88709188      18.29013755      15.09685333 
C      11.74062402      15.08303399      15.16777517 
C      13.23348230      15.36207422      15.09953782 
C      15.45354815      13.93655351      15.33099428 
C      15.62154334      12.81906995      14.29310012 
C      16.57864813      14.99058887      15.14283489 
C      17.33293827      17.29235924      14.99926239 
N      14.01153121      14.28934943      15.41763304 
N      16.28840446      16.30206413      15.18941321 
O      13.64332511      16.49179851      14.78021656 
O      17.73086886      14.54372852      15.02476560 
22
Lattice="30.0 0.0 0.0 0.0 30.0 0.0 0.0 0.0 30.0" Properties=species:S:1:pos:R:3 pbc="T T T"
H      11.19165891      15.99784953      15.01640449 
H      11.40833050      14.31876279      14.45686026 
H      11.43782715      14.67655504      16.20026200 
H      13.44682552      13.47928639      15.85105059 
H      15.64977637      13.32292531      16.28105469 
H      16.65693683      12.66378772      14.12756265 
H      15.39778819      13.55967237      13.22596728 
H      14.95473261      12.13671613      14.21041900 
H      15.32593889      16.50210304      14.81857837 
H      17.92910747      17.29928929      15.89809900 
H      18.10513361      16.91619136      14.17444993 
H      16.95290165      18.18899360      14.68594105 
C      11.72196161      15.05941341      15.20907185 
C      13.21644432      15.30903654      15.08740390 
C      15.42305749      13.91935590      15.38348917 
C      15.61667818      13.01438730      14.15518390 
C      16.55838087      14.97352773      15.39726351 
C      17.38037700      17.21359631      14.94867376 
N      13.99175935      14.28124608      15.53957769 
N      16.30305336      16.24730326      15.05379715 
O      13.63979121      16.37435991      14.60804611 
O      17.69148944      14.54566964      15.67080296 
22
Lattice="30.0 0.0 0.0 0.0 30.0 0.0 0.0 0.0 30.0" Properties=species:S:1:pos:R:3 pbc="T T T"
H      11.31821085      16.09565416      15.07686553 
H      11.28514143      14.41281016      14.50674589 
H      11.54101754      14.74683288      16.23734357 
H      13.49785139      13.61564084      16.17933168 
H      15.63649552      13.14217333      16.13788882 
H      16.64686191      12.81571357      13.90179452 
H      15.37772376      13.82362287      13.14898555 
H      14.94954457      12.27006130      13.92254294 
H      15.40173958      16.35013973      14.58557280 
H      17.69492079      17.31826703      16.14467071 
H      18.21582366      16.88905387      14.50362845 
H      16.94003893      18.12554914      14.73344378 
C      11.76056040      15.10343789      15.22075857 
C      13.24603967      15.17302336      14.92199580 
C      15.41396358      13.86097046      15.33692625 
C      15.60391955      13.15194787      13.98801791 
C      16.52225243      14.92623342      15.53260433 
C      17.34360279      17.17833340      15.11169146 
N      14.00936012      14.25166863      15.57392919 
N      16.30268014      16.16858466      15.05431373 
O      13.70411697      16.01146170      14.12478488 
O      17.58821935      14.56873875      16.05594912 
22
Lattice="30.0 0.0 0.0 0.0 30.0 0.0 0.0 0.0 30.0" Properties=species:S:1:pos:R:3 pbc="T T T"
H      11.40677632      16.17024493      15.01068394 
H      11.25876995      14.47919091      14.48179054 
H      11.59751707      14.83629746      16.19303814 
H      13.50532400      13.58587056      16.09311192 
H      15.59784532      12.95505398      15.86642425 
H      16.67475311      12.96826905      13.63658816 
H      15.43073315      14.08864976      13.01160500 
H      14.97589755      12.43883007      13.52507978 
H      15.43165774      16.32698771      14.69756327 
H      17.50052751      17.20044267      16.57472808 
H      18.23220341      16.87928610      14.99003806 
H      16.91715497      18.08889691      15.13388370 
C      11.79821659      15.15769942      15.16067528 
C      13.27510685      15.14318014      14.81636613 
C      15.40569274      13.78979677      15.17817296 
C      15.63076637      13.29516688      13.74314374 
C      16.49509935      14.81762905      15.57328308 
C      17.28583478      17.12222618      15.49814075 
N      14.00666503      14.17671986      15.43649680 
N      16.27851864      16.10907565      15.24107612 
O      13.76559578      15.95767967      14.01296643 
O      17.52930520      14.41279492      16.12510807 
22
Lattice="30.0 0.0 0.0 0.0 30.0 0.0 0.0 0.0 30.0" Properties=species:S:1:pos:R:3 pbc="T T T"
H      11.40434157      16.15450809      14.97666265 
H      11.27852583      14.48230960      14.37904452 
H      11.59013189      14.77574883      16.10672149 
H      13.48222515      13.44952187      15.85906681 
H      15.57733212      12.83251039      15.57418764 
H      16.73611659      13.20751922      13.41203097 
H      15.50632763      14.41124887      12.93348136 
H      15.04622126      12.69985622      13.15592388 
H      15.46798649      16.32660504      14.82367347 
H      17.30712378      17.04705857      16.94214340 
H      18.25916291      16.79424217      15.46525627 
H      16.94929657      18.01721046      15.48081122 
C      11.80138978      15.13990249      15.09070645 
C      13.28493547      15.15455738      14.77703483 
C      15.40498750      13.76548794      15.02030683 
C      15.68651974      13.51037975      13.53375219 
C      16.45873540      14.72818778      15.62361513 
C      17.25166167      17.02690697      15.84273743 
N      13.99579821      14.10935811      15.28249849 
N      16.28604059      16.04639736      15.38261764 
O      13.79906246      16.05974093      14.09462440 
O      17.42612474      14.26079130      16.24308728 
22
Lattice="30.0 0.0 0.0 0.0 30.0 0.0 0.0 0.0 30.0" Properties=species:S:1:pos:R:3 pbc="T T T"
H      11.38182434      16.10336041      14.92937272 
H      11.30857592      14.45453789      14.25683053 
H      11.58271057      14.68162490      16.00022471 
H      13.48037883      13.32959650      15.58214551 
H      15.59243644      12.77851988      15.28548881 
H      16.82606036      13.46092723      13.24606504 
H      15.59784266      14.70651779      12.88650588 
H      15.15591224      12.97667879      12.85382098 
H      15.47235011      16.34211531      14.98159123 
H      17.10549291      16.85254133      17.28782977 
H      18.22136261      16.68574071      15.91722516 
H      16.94102450      17.93978602      15.87508014 
C      11.80187241      15.09466882      15.00443419 
C      13.29219878      15.16165285      14.72880613 
C      15.42482007      13.77735001      14.86007959 
C      15.76791103      13.73404394      13.36540728 
C      16.43060652      14.66101512      15.64098707 
C      17.18116439      16.91716337      16.19076730 
N      14.00143660      14.06491154      15.11377242 
N      16.26491129      15.99869079      15.54120609 
O      13.81338367      16.15134608      14.18282966 
O      17.35590958      14.12719961      16.26953710 
22
Lattice="30.0 0.0 0.0 0.0 30.0 0.0 0.0 0.0 30.0" Properties=species:S:1:pos:R:3 pbc="T T T"
H      11.37324525      16.04852599      14.87326234 
H      11.35057839      14.44721713      14.08834015 
H      11.57484356      14.56080103      15.84951300 
H      13.50482481      13.24875161      15.32877690 
H      15.63273497      12.76084944      14.99688003 
H      16.92964782      13.75725183      13.13056988 
H      15.68585594      15.01785469      12.90461923 
H      15.28835727      13.30430907      12.60184170 
H      15.47098226      16.33263930      15.13387128 
H      16.87430492      16.62225908      17.59316410 
H      18.14066705      16.54242153      16.35125383 
H      16.89131566      17.82512672      16.26744379 
C      11.81088653      15.04478845      14.89005511 
C      13.30672571      15.15926530      14.66548514 
C      15.45899887      13.80755503      14.71251980 
C      15.86117607      13.98946374      13.24382623 
C      16.40176802      14.59104888      15.66077236 
C      17.07925309      16.77468033      16.52113565 
N      14.02165993      14.03472759      14.94577401 
N      16.23759968      15.93303665      15.69150456 
O      13.82924314      16.20916839      14.24874179 
O      17.27543945      13.98829766      16.30057371 
22
Lattice="30.0 0.0 0.0 0.0 30.0 0.0 0.0 0.0 30.0" Properties=species:S:1:pos:R:3 pbc="T T T"
H      11.35839431      15.98147041      14.79217558 
H      11.41243514      14.43886836      13.89566044 
H      11.56641790      14.43386927      15.66782542 
H      13.54464845      13.18705330      15.03215367 
H      15.69763714      12.79023542      14.72773813 
H      17.05132259      14.06083051      13.07988434 
H      15.78261662      15.31087790      12.96264626 
H      15.45054225      13.64571379      12.41340895 
H      15.44402624      16.31021693      15.29831203 
H      16.63280638      16.36822369      17.85716972 
H      18.01914685      16.37147532      16.74666504 
H      16.79919197      17.68156838      16.65274868 
C      11.82378488      14.99096910      14.75445891 
C      13.32371342      15.16196585      14.60559697 
C      15.50738126      13.86164787      14.57799472 
C      15.97222121      14.25052030      13.16957704 
C      16.37504376      14.53138201      15.67393753 
C      16.94906320      16.60922401      16.82902717 
N      14.05473472      14.02450508      14.76737493 
N      16.19100220      15.86053255      15.84466552 
O      13.83572452      16.26727882      14.35006336 
O      17.20819239      13.86163819      16.30099782 
22
Lattice="30.0 0.0 0.0 0.0 30.0 0.0 0.0 0.0 30.0" Properties=species:S:1:pos:R:3 pbc="T T T"
H      11.34426000      15.89157000      14.69982000 
H      11.48166000      14.41257000      13.70772000 
H      11.58156000      14.29857000      15.47982000 
H      13.61736000      13.14897000      14.74512000 
H      15.79686000      12.86277000      14.47692000 
H      17.17926000      14.38917000      13.08822000 
H      15.86646000      15.59757000      13.06422000 
H      15.63306000      14.00997000      12.28542000 
H      15.42276000      16.29027000      15.43002000 
H      16.38006000      16.08537000      18.06192000 
H      17.86866000      16.18857000      17.09832000 
H      16.66476000      17.51427000      17.02152000 
C      11.84616000      14.92227000      14.61252000 
C      13.34376000      15.15327000      14.53152000 
C      15.57066000      13.93737000      14.45832000 
C      16.08996000      14.52687000      13.14222000 
C      16.33746000      14.48367000      15.69012000 
C      16.79586000      16.42797000      17.10012000 
N      14.10516000      14.02557000      14.58612000 
N      16.14036000      15.79227000      15.97302000 
O      13.82886000      16.29417000      14.42112000 
O      17.10486000      13.74717000      16.32612000 
